LAMMPS (17 Nov 2016)
# Input file for nanocutting of Cubic SiC with a diamond tool
# Chris Fung, June 2013 (last update: Mar 219)

# ------------------------ GPU SETTINGS ----------------------------

#package cuda gpu/node 1 0
#package omp 2 force/neigh

# ------------------------ INITIALIZATION ----------------------------
units 		metal
dimension	3
boundary	s	s	p
atom_style	atomic

variable a equal 4.3668
variable b equal 3.5716
variable c equal $a/$b
variable c equal 4.3668/$b
variable c equal 4.3668/3.5716
variable dx equal 70*$c
variable dx equal 70*1.22264531302497
variable dy equal 10*$c
variable dy equal 10*1.22264531302497
variable dx1 equal 11+85.5851719117479
variable dy1 equal 12.2264531302497+11
variable rx equal 85.5851719117479+4
variable ry equal 12.2264531302497+4
variable bx1 equal 96.5851719117479-1
variable bx2 equal 95.5851719117479-1
variable by1 equal 23.2264531302497-1
variable by2 equal 22.2264531302497-1

variable z equal 18.0

lattice fcc $a
lattice fcc 4.3668
Lattice spacing in x,y,z = 4.3668 4.3668 4.3668
region		whole block 0 99 0 27 0 $z
region		whole block 0 99 0 27 0 18
create_box	3 whole
Created orthogonal box = (0 0 0) to (432.313 117.904 78.6024)

# ----------------------- ATOM DEFINITION ----------------------------

# create C atoms for diamond tool
lattice diamond $b orient x 1 0 0 orient y 0 1 0 origin 0 0 0.4
lattice diamond 3.5716 orient x 1 0 0 orient y 0 1 0 origin 0 0 0.4
Lattice spacing in x,y,z = 3.5716 3.5716 3.5716

# define the shape, dimension, and initial position of cutting tool
region cut_toolB block 85.5851719117479 96.5851719117479 12.2264531302497 23.2264531302497 INF INF
region cut_toolR cylinder z 89.5851719117479 16.2264531302497  4 INF INF
region trimbox1 block 85.5851719117479 89.5851719117479 12.2264531302497 16.2264531302497 INF INF side out
region cut_toolTr intersect 2 cut_toolB trimbox1
region cut_tool union 2 cut_toolTr cut_toolR

region trimbox2 prism 4.35 15.65 0 1 INF INF 6 0 0

#define boundaries of cutting tool
region ctTop block 85.5851719117479 96.5851719117479 22.2264531302497 23.2264531302497 INF INF
region ctxEnd block 95.5851719117479 96.5851719117479 12.2264531302497 23.2264531302497 INF INF
region ctTSbottom block 85.5851719117479 95.5851719117479 21.2264531302497 22.2264531302497 INF INF
region ctTSxEnd block 94.5851719117479 95.5851719117479 12.2264531302497 22.2264531302497 INF INF
region ctbound union 2 ctTop ctxEnd
region ctTSbound union 2 ctTSbottom ctTSxEnd

# create C atoms of diamond tool and make a nano-groove on the flank face
create_atoms 1 region cut_tool
Created 20658 atoms

delete_atoms region trimbox2
Deleted 0 atoms, new total = 20658

variable gy equal 6+3.2226178427343
variable gy1 equal 9.2226178427343+1.0
variable gz1 equal 1.0*18+1.5
region groove4 block  85.5851719117479 96.5851719117479 9.2226178427343 10.2226178427343 2.5 19.5
variable gy1 equal 10.2226178427343+1.0
variable gz0 equal 2.5+1.0
variable gz1 equal 19.5-1.0
region groove5 block  85.5851719117479 96.5851719117479 9.2226178427343 11.2226178427343 3.5 18.5
variable gy1 equal 11.2226178427343+1.0
variable gz0 equal 3.5+1.0
variable gz1 equal 18.5-1.0
region groove6 block 85.5851719117479 96.5851719117479 9.2226178427343 12.2226178427343 4.5 17.5
variable gy1 equal 12.2226178427343+1.0
variable gz0 equal 4.5+1.0
variable gz1 equal 17.5-1.0
region groove7 block 85.5851719117479 96.5851719117479 9.2226178427343 13.2226178427343 5.5 16.5
variable gy1 equal 13.2226178427343+1.0
variable gz0 equal 5.5+1.0
variable gz1 equal 16.5-1.0
region groove8 block 85.5851719117479 96.5851719117479 9.2226178427343 14.2226178427343 6.5 15.5
variable gy1 equal 14.2226178427343+1.0
variable gz0 equal 6.5+1.0
variable gz1 equal 15.5-1.0
region groove9 block 85.5851719117479 96.5851719117479 9.2226178427343 15.2226178427343 7.5 14.5
variable gy1 equal 15.2226178427343+1.0
variable gz0 equal 7.5+1.0
variable gz1 equal 14.5-1.0
region groove10 block 85.5851719117479 96.5851719117479 9.2226178427343 16.2226178427343 8.5 13.5
variable gy1 equal 16.2226178427343+1.0
variable gz0 equal 8.5+1.0
variable gz1 equal 13.5-1.0
region groove11 block 85.5851719117479 96.5851719117479 9.2226178427343 17.2226178427343 9.5 12.5
variable gy1 equal 17.2226178427343+1.0
variable gz0 equal 9.5+1.0
variable gz1 equal 12.5-1.0
region groove12 block 85.5851719117479 96.5851719117479 9.2226178427343 18.2226178427343 10.5 11.5

delete_atoms region groove4
Deleted 0 atoms, new total = 20658
delete_atoms region groove5
Deleted 0 atoms, new total = 20658
delete_atoms region groove6
Deleted 0 atoms, new total = 20658
delete_atoms region groove7
Deleted 759 atoms, new total = 19899
delete_atoms region groove8
Deleted 720 atoms, new total = 19179
delete_atoms region groove9
Deleted 602 atoms, new total = 18577
delete_atoms region groove10
Deleted 440 atoms, new total = 18137
delete_atoms region groove11
Deleted 264 atoms, new total = 17873
delete_atoms region groove12
Deleted 88 atoms, new total = 17785

group gpCTall region  cut_tool
17785 atoms in group gpCTall
group gpCTbd  region  ctbound
3408 atoms in group gpCTbd
group gpCTtsbd  region  ctTSbound
3056 atoms in group gpCTtsbd
group gpCTmob subtract gpCTall gpCTbd gpCTtsbd
11321 atoms in group gpCTmob
group gpCTeq subtract gpCTall gpCTbd
14377 atoms in group gpCTeq

print "diamond tool created"
diamond tool created
#------------------------------------------------------------

# define the lattice of cubic SiC (two atom types form two interpenetrating face-centered cubic lattices)

# define the shape and dimension of the workpiece
lattice fcc $a origin 0 0 0 orient x 1 0 0 orient y 0 1 0
lattice fcc 4.3668 origin 0 0 0 orient x 1 0 0 orient y 0 1 0
Lattice spacing in x,y,z = 4.3668 4.3668 4.3668

# define the boundaries for workpiece
region workpiece block 0 65 0 15 INF INF
region wpbottom block 0 65 0 1 INF INF
region wpxEnd block 0 1 0 15 INF INF
region wpTSbottom block 1 65 1 2 INF INF
region wpTSxEnd block 1 2 1 15 INF INF
region wpbound union 2 wpbottom wpxEnd
region wpTSbound union 2 wpTSbottom wpTSxEnd

# create Si atoms for SiC workpiece
create_atoms	2 region workpiece
Created 73098 atoms

# offset origin for 1/4 unit cell for C atoms
lattice fcc $a origin 0.25 0.25 0.25 orient x 1 0 0 orient y 0 1 0
lattice fcc 4.3668 origin 0.25 0.25 0.25 orient x 1 0 0 orient y 0 1 0
Lattice spacing in x,y,z = 4.3668 4.3668 4.3668
create_atoms	3 region workpiece
Created 70200 atoms

# groups atoms
group gpWPall region workpiece
143298 atoms in group gpWPall
group gpWPbd region wpbound
14274 atoms in group gpWPbd
group gpWPtsbd region wpTSbound
13914 atoms in group gpWPtsbd
group gpWPmob subtract gpWPall gpWPbd gpWPtsbd
117936 atoms in group gpWPmob

print "Workpiece created"
Workpiece created

#-------------------------------------------------

# define the mass of atoms
mass 1 12 #.0107 # C (g/mol)
mass 2 28 #.0855 # Si (g/mol)
mass 3 12 #.0107 # C (g/mol)

#group Si type 2
#group C type 1 3

lattice fcc $a origin 0 0 0
lattice fcc 4.3668 origin 0 0 0
Lattice spacing in x,y,z = 4.3668 4.3668 4.3668

# ------------------------ FORCE FIELDS ------------------------------

pair_style      atomistica BrennerScr

pair_coeff	* * C Si C

# ------------------------- SETTINGS ---------------------------------
######################################
# EQUILIBRATION

# set temperature at 300 K

group gpCTeq union gpCTmob gpCTtsbd
14377 atoms in group gpCTeq
group gpWPeq union gpWPmob gpWPtsbd
131850 atoms in group gpWPeq
group gpAlleq union gpCTeq gpWPeq
146227 atoms in group gpAlleq

compute myCTtemp gpCTeq temp
compute myWPtemp gpWPeq temp
velocity gpAlleq create 300 102456 dist uniform

fix 1 gpCTeq nvt temp 300.0 300.0 0.1 # aniso 1.0 1.0 0.5
fix_modify 1 temp myCTtemp
fix 2 gpWPeq nvt temp 300.0 300.0 0.1 # aniso 1.0 1.0 0.5
fix_modify 2 temp myWPtemp

reset_timestep	0
timestep 0.001 # set 1 femtosecond per step

fix 3 gpWPbd move linear 0 0 0
fix 4 gpCTbd move linear -0.75 0 0  units box

fix 10 all balance 100 0.9 shift xy 10 1.05 out tmp.balance
fix 13 all property/atom mol ghost yes

set group gpCTmob mol 1
  11321 settings made for mol
set group gpCTtsbd mol 2
  3056 settings made for mol
set group gpCTbd mol 3
  3408 settings made for mol

set group gpWPmob mol 4
  117936 settings made for mol
set group gpWPtsbd mol 5
  13914 settings made for mol
set group gpWPbd mol 6
  14274 settings made for mol

# Display thermo

thermo 	100
thermo_style custom step temp c_myCTtemp c_myWPtemp press etotal

#compute		eCSP all centro/atom fcc
#compute atomke all ke/atom
dump	 e0dumpCSP all custom 500 dump.cutsic_eq.*.lammpstrj id type mol element x y z vx vy vz # c_atomke
dump_modify e0dumpCSP element C Si C

# backup initial state and every 1000 steps
#write_restart cut_sic_eq.restart.0000.*.mpiio
#restart 1000 cut_sic_eq.restart.*.mpiio

# Run for at least 10 picosecond
print "start run equilibration"
start run equilibration

run 27000
  1 neighbor list requests
  update every 1 steps, delay 10 steps, check yes
Step Temp c_myCTtemp c_myWPtemp Press TotEng
0     272.3321    299.88848    300.01443   -10166.506   -1015018.2
Averages over the last 136 of 271 rows, steps 13500 to 27000:
Temp c_myCTtemp c_myWPtemp Press TotEng
272.399 300.039 300.01 -2091.45 -1.01083e+06
Loop time of 10693.9 on 32 procs for 27000 steps with 161083 atoms

print "Complete equilibration process"
Complete equilibration process

unfix 1
unfix 2
unfix 3
unfix 4
uncompute myCTtemp
uncompute myWPtemp
undump e0dumpCSP

######################################
# DEFORMATION

# move the tool to closer

#displace_atoms gpCTall move -4.9 0 0

reset_timestep	0
timestep 0.0005

compute myCTmobtemp gpCTmob temp/partial 0 1 1
compute myWPmobtemp gpWPmob temp/partial 0 1 1
compute myCTTStemp gpCTtsbd temp
compute myWPTStemp gpWPtsbd temp/partial 0 1 1

# rescale the temperature of thermostatic boundaries to 300 K

fix 1 gpWPtsbd nvt temp 300.0 300.0 0.01 #iso 1.0 1.0 0.5
fix_modify 1 temp myWPTStemp
fix 2 gpCTtsbd nvt temp 300.0 300.0 0.01 #iso 1.0 1.0 0.5
fix_modify 2 temp myCTTStemp

fix 3 gpWPbd move linear 0 0 0
fix 4 gpCTbd move linear -$v 0 0 units box  # cutting speed = v * 100 (m s^-1 in the x-direction)
fix 4 gpCTbd move linear -1.0 0 0 units box

group mobile union gpCTmob gpWPmob
129257 atoms in group mobile

fix 5 mobile nve

compute ke all ke/atom
fix 12 all ave/atom 10 50 500 c_ke

thermo 	500
thermo_style custom step c_myCTmobtemp c_myCTTStemp c_myWPmobtemp c_myWPTStemp press etotal fmax fnorm

# Output strain and stress info to file
# for units metal, pressure is in [bars] = 100 [kPa] = 1/10000 [GPa]
# p2, p3, p4 are in GPa

## Use cfg for AtomEye
#dump 		1 all cfg 2000 dump.cutsic_*.cfg id type xs ys zs c_csym

# backup initial state and every 1000 steps
write_restart cut_sic.restart.0000
restart 1000 cut_sic.restart

# Display thermo
dump	 0dumpCSP all custom  500 dump.cutsic.*.lammpstrj id type mol x y z vx vy vz f_12
dump_modify 0dumpCSP element C Si C

#write_restart cut_sic.restart.0000
#restart 1000 cut_sic.restart

reset_timestep	0
variable Nstep equal ceil(400000/$v)
variable Nstep equal ceil(400000/1.0)
 run 400000
Step c_myCTmobtemp c_myCTTStemp c_myWPmobtemp c_myWPTStemp Press TotEng Fmax Fnorm
0     299.3021    287.30864    306.42451    243.88952   -3027.1425   -1011003.6    9.4286525     670.3897
Averages over the last 134 of 267 rows, steps 66500 to 133000:
c_myCTmobtemp c_myCTTStemp c_myWPmobtemp c_myWPTStemp Press TotEng Fmax Fnorm
397.087 305.197 564.572 300.596 55209.9 -987237 17.5847 896.11
